!!>>>>>>>>>>>>>>>>>>>>>>>>>>>>>>>>>>>>>>>>>>>>>>>>>>>>>>>>>>>>>>>>>>>>>>
!! NEMO/LIM-2 : Ice configuration namelist. Overwrites SHARED/namelist_ice_lim2_ref
!>>>>>>>>>>>>>>>>>>>>>>>>>>>>>>>>>>>>>>>>>>>>>>>>>>>>>>>>>>>>>>>>>>>>>>>

!-----------------------------------------------------------------------
&namicerun     !   Share parameters for dynamics/advection/thermo
!-----------------------------------------------------------------------
   cn_icerst_indir = "./restarts/"              !  directory from which to read input ice restarts
   cn_icerst_outdir = "./restarts/"             !  directory in which to write output ice restarts
/
!-----------------------------------------------------------------------
&namiceini     !   ice initialisation
!-----------------------------------------------------------------------
/
!-----------------------------------------------------------------------
&namicedyn     !   ice dynamic
!-----------------------------------------------------------------------
/
!-----------------------------------------------------------------------
&namicetrp     !   ice transport
!-----------------------------------------------------------------------
/
!-----------------------------------------------------------------------
&namicethd     !   ice thermodynamic
!-----------------------------------------------------------------------
/
