/work/n01/n01/dapa/NCEO/PDAF/code/clone/NEMO-FABM-PDAF/NEMOGCM/NEMO/OPA_SRC/OBS/grt_cir_dis.h90