/work/n01/n01/dapa/NCEO/PDAF/code/clone/NEMO-FABM-PDAF/NEMOGCM/NEMO/OPA_SRC/OBS/obsinter_z1d.h90