/work/n01/n01/dapa/NCEO/PDAF/code/clone/NEMO-FABM-PDAF/NEMOGCM/NEMO/OPA_SRC/OBS/obsvel_io.h90