/work/n01/n01/dapa/NCEO/PDAF/code/clone/NEMO-FABM-PDAF/NEMOGCM/NEMO/TOP_SRC/top_substitute.h90