/work/n01/n01/dapa/NCEO/PDAF/code/clone/NEMO-FABM-PDAF/NEMOGCM/NEMO/OPA_SRC/ZDF/zdfddm_substitute.h90